.SUBCKT A2O1A1Ixp33_ASAP7_6t_R A1 A2 B C VDD VSS Y
MM7 net06 B VSS VSS nmos_rvt w=54.0n l=20n nfin=2
MM2 Y C net06 VSS nmos_rvt w=54.0n l=20n nfin=2
MM1 net015 A2 VSS VSS nmos_rvt w=54.0n l=20n nfin=2
MM0 net06 A1 net015 VSS nmos_rvt w=54.0n l=20n nfin=2
MM6 Y C VDD VDD pmos_rvt w=54.0n l=20n nfin=2
MM5 Y B net2 VDD pmos_rvt w=54.0n l=20n nfin=2
MM4 net2 A2 VDD VDD pmos_rvt w=54.0n l=20n nfin=2
MM3 net2 A1 VDD VDD pmos_rvt w=54.0n l=20n nfin=2
.ENDS


.SUBCKT A2O1A1Ixp5_ASAP7_6t_R A1 A2 B C VDD VSS Y
MM9 Y C net039 VSS nmos_rvt w=54.0n l=20n nfin=2
MM5 net045 A1 VSS VSS nmos_rvt w=108.00n l=20n nfin=4
MM4 net039 A2 net045 VSS nmos_rvt w=108.00n l=20n nfin=4
MM6 net039 B VSS VSS nmos_rvt w=54.0n l=20n nfin=2
MM0 net038 A1 VDD VDD pmos_rvt w=27.0n l=20n nfin=1
MM3 Y B net038 VDD pmos_rvt w=27.0n l=20n nfin=1
MM1 net038 A2 VDD VDD pmos_rvt w=27.0n l=20n nfin=1
MM2 Y C VDD VDD pmos_rvt w=27.0n l=20n nfin=1
.ENDS


.SUBCKT A2O1A1O1Ixp33_ASAP7_6t_R A1 A2 B C D VDD VSS Y
MM5 net4 A1 VDD VDD pmos_rvt w=54.0n l=20n nfin=2
MM8 net15 C VDD VDD pmos_rvt w=54.0n l=20n nfin=2
MM6 net4 A2 VDD VDD pmos_rvt w=54.0n l=20n nfin=2
MM9 Y D net15 VDD pmos_rvt w=54.0n l=20n nfin=2
MM7 net15 B net4 VDD pmos_rvt w=54.0n l=20n nfin=2
MM4 Y D VSS VSS nmos_rvt w=54.0n l=20n nfin=2
MM1 net25 A2 net12 VSS nmos_rvt w=54.0n l=20n nfin=2
MM3 net12 B VSS VSS nmos_rvt w=54.0n l=20n nfin=2
MM0 VSS A1 net25 VSS nmos_rvt w=54.0n l=20n nfin=2
MM2 net12 C Y VSS nmos_rvt w=54.0n l=20n nfin=2
.ENDS


.SUBCKT AND2x2_ASAP7_6t_R A B VDD VSS Y
MM4 Y net10 VDD VDD pmos_rvt w=108.00n l=20n nfin=4
MM1 net10 B VDD VDD pmos_rvt w=27.0n l=20n nfin=1
MM0 net10 A VDD VDD pmos_rvt w=27.0n l=20n nfin=1
MM5 Y net10 VSS VSS nmos_rvt w=108.00n l=20n nfin=4
MM3 net20 A VSS VSS nmos_rvt w=54.0n l=20n nfin=2
MM2 net10 B net20 VSS nmos_rvt w=54.0n l=20n nfin=2
.ENDS


.SUBCKT AND2x4_ASAP7_6t_R A B VDD VSS Y
MM4 Y net9 VDD VDD pmos_rvt w=216.00n l=20n nfin=8
MM1 net9 B VDD VDD pmos_rvt w=108.00n l=20n nfin=4
MM0 net9 A VDD VDD pmos_rvt w=108.00n l=20n nfin=4
MM5 Y net9 VSS VSS nmos_rvt w=216.00n l=20n nfin=8
MM3 net19 A VSS VSS nmos_rvt w=108.00n l=20n nfin=4
MM2 net9 B net19 VSS nmos_rvt w=108.00n l=20n nfin=4
.ENDS


.SUBCKT AND2x6_ASAP7_6t_R A B VDD VSS Y
MM4 Y net9 VDD VDD pmos_rvt w=324.00n l=20n nfin=12
MM1 net9 B VDD VDD pmos_rvt w=108.00n l=20n nfin=4
MM0 net9 A VDD VDD pmos_rvt w=108.00n l=20n nfin=4
MM5 Y net9 VSS VSS nmos_rvt w=324.00n l=20n nfin=12
MM3 net19 A VSS VSS nmos_rvt w=108.00n l=20n nfin=4
MM2 net9 B net19 VSS nmos_rvt w=108.00n l=20n nfin=4
.ENDS


.SUBCKT AND3x1_ASAP7_6t_R A B C VDD VSS Y
MM6 Y net61 VDD VDD pmos_rvt w=54.0n l=20n nfin=2
MM5 net61 C VDD VDD pmos_rvt w=54.0n l=20n nfin=2
MM4 net61 B VDD VDD pmos_rvt w=54.0n l=20n nfin=2
MM3 net61 A VDD VDD pmos_rvt w=54.0n l=20n nfin=2
MM7 Y net61 VSS VSS nmos_rvt w=54.0n l=20n nfin=2
MM0 net61 A net72 VSS nmos_rvt w=54.0n l=20n nfin=2
MM1 net72 B net71 VSS nmos_rvt w=54.0n l=20n nfin=2
MM2 net71 C VSS VSS nmos_rvt w=54.0n l=20n nfin=2
.ENDS


.SUBCKT AND3x2_ASAP7_6t_R A B C VDD VSS Y
MM6 Y net61 VDD VDD pmos_rvt w=108.00n l=20n nfin=4
MM5 net61 C VDD VDD pmos_rvt w=54.0n l=20n nfin=2
MM4 net61 B VDD VDD pmos_rvt w=54.0n l=20n nfin=2
MM3 net61 A VDD VDD pmos_rvt w=54.0n l=20n nfin=2
MM7 Y net61 VSS VSS nmos_rvt w=108.00n l=20n nfin=4
MM0 net61 A net72 VSS nmos_rvt w=54.0n l=20n nfin=2
MM1 net72 B net71 VSS nmos_rvt w=54.0n l=20n nfin=2
MM2 net71 C VSS VSS nmos_rvt w=54.0n l=20n nfin=2
.ENDS


.SUBCKT AND3x4_ASAP7_6t_R A B C VDD VSS Y
MM6 Y net83 VDD VDD pmos_rvt w=216.00n l=20n nfin=8
MM5 net83 C VDD VDD pmos_rvt w=54.0n l=20n nfin=2
MM4 net83 B VDD VDD pmos_rvt w=54.0n l=20n nfin=2
MM3 net83 A VDD VDD pmos_rvt w=54.0n l=20n nfin=2
MM7 Y net83 VSS VSS nmos_rvt w=216.00n l=20n nfin=8
MM0 net83 A net89 VSS nmos_rvt w=108.00n l=20n nfin=4
MM1 net89 B net90 VSS nmos_rvt w=108.00n l=20n nfin=4
MM2 net90 C VSS VSS nmos_rvt w=108.00n l=20n nfin=4
.ENDS


.SUBCKT AND4x1_ASAP7_6t_R A B C D VDD VSS Y
MM8 Y net12 VDD VDD pmos_rvt w=54.0n l=20n nfin=2
MM7 net12 A VDD VDD pmos_rvt w=54.0n l=20n nfin=2
MM6 net12 B VDD VDD pmos_rvt w=54.0n l=20n nfin=2
MM2 net12 C VDD VDD pmos_rvt w=54.0n l=20n nfin=2
MM1 net12 D VDD VDD pmos_rvt w=54.0n l=20n nfin=2
MM9 Y net12 VSS VSS nmos_rvt w=54.0n l=20n nfin=2
MM5 pd3 A VSS VSS nmos_rvt w=54.0n l=20n nfin=2
MM3 pd2 B pd3 VSS nmos_rvt w=54.0n l=20n nfin=2
MM4 pd1 C pd2 VSS nmos_rvt w=54.0n l=20n nfin=2
MM0 net12 D pd1 VSS nmos_rvt w=54.0n l=20n nfin=2
.ENDS


.SUBCKT AND4x2_ASAP7_6t_R A B C D VDD VSS Y
MM5 net33 A VDD VDD pmos_rvt w=54.0n l=20n nfin=2
MM4 net33 B VDD VDD pmos_rvt w=54.0n l=20n nfin=2
MM3 net33 C VDD VDD pmos_rvt w=54.0n l=20n nfin=2
MM2 net33 D VDD VDD pmos_rvt w=54.0n l=20n nfin=2
MM1 Y net33 VDD VDD pmos_rvt w=108.00n l=20n nfin=4
MM9 net15 D VSS VSS nmos_rvt w=54.0n l=20n nfin=2
MM8 net16 C net15 VSS nmos_rvt w=54.0n l=20n nfin=2
MM7 net17 B net16 VSS nmos_rvt w=54.0n l=20n nfin=2
MM6 net33 A net17 VSS nmos_rvt w=54.0n l=20n nfin=2
MM0 Y net33 VSS VSS nmos_rvt w=108.00n l=20n nfin=4
.ENDS


.SUBCKT AND5x1_ASAP7_6t_R A B C D E VDD VSS Y
MM11 Y net011 VSS VSS nmos_rvt w=54.0n l=20n nfin=2
MM6 net29 E VSS VSS nmos_rvt w=54.0n l=20n nfin=2
MM5 net30 D net29 VSS nmos_rvt w=54.0n l=20n nfin=2
MM4 net024 B net023 VSS nmos_rvt w=54.0n l=20n nfin=2
MM0 net011 A net024 VSS nmos_rvt w=54.0n l=20n nfin=2
MM3 net023 C net30 VSS nmos_rvt w=54.0n l=20n nfin=2
MM9 net011 E VDD VDD pmos_rvt w=54.0n l=20n nfin=2
MM8 net011 D VDD VDD pmos_rvt w=54.0n l=20n nfin=2
MM7 net011 C VDD VDD pmos_rvt w=54.0n l=20n nfin=2
MM2 net011 B VDD VDD pmos_rvt w=54.0n l=20n nfin=2
MM1 Y net011 VDD VDD pmos_rvt w=54.0n l=20n nfin=2
MM10 net011 A VDD VDD pmos_rvt w=54.0n l=20n nfin=2
.ENDS


.SUBCKT AND5x2_ASAP7_6t_R A B C D E VDD VSS Y
MM1 Y net14 VDD VDD pmos_rvt w=108.00n l=20n nfin=4
MM9 net14 E VDD VDD pmos_rvt w=54.0n l=20n nfin=2
MM7 net14 B VDD VDD pmos_rvt w=54.0n l=20n nfin=2
MM2 net14 D VDD VDD pmos_rvt w=54.0n l=20n nfin=2
MM8 net14 C VDD VDD pmos_rvt w=54.0n l=20n nfin=2
MM10 net14 A VDD VDD pmos_rvt w=54.0n l=20n nfin=2
MM11 Y net14 VSS VSS nmos_rvt w=108.00n l=20n nfin=4
MM6 net33 E VSS VSS nmos_rvt w=54.0n l=20n nfin=2
MM5 net34 D net33 VSS nmos_rvt w=54.0n l=20n nfin=2
MM4 net32 B net35 VSS nmos_rvt w=54.0n l=20n nfin=2
MM0 net14 A net32 VSS nmos_rvt w=54.0n l=20n nfin=2
MM3 net35 C net34 VSS nmos_rvt w=54.0n l=20n nfin=2
.ENDS


.SUBCKT AO211x1_ASAP7_6t_R A1 A2 B C VDD VSS Y
MM7 Y net95 VSS VSS nmos_rvt w=54.0n l=20n nfin=2
MM24 net95 A1 net100 VSS nmos_rvt w=54.0n l=20n nfin=2
MM3 net95 B VSS VSS nmos_rvt w=54.0n l=20n nfin=2
MM4 net95 C VSS VSS nmos_rvt w=54.0n l=20n nfin=2
MM2 net100 A2 VSS VSS nmos_rvt w=54.0n l=20n nfin=2
MM5 net99 B VDD VDD pmos_rvt w=54.0n l=20n nfin=2
MM6 net96 C net99 VDD pmos_rvt w=54.0n l=20n nfin=2
MM8 Y net95 VDD VDD pmos_rvt w=54.0n l=20n nfin=2
MM1 net95 A2 net96 VDD pmos_rvt w=54.0n l=20n nfin=2
MM25 net95 A1 net96 VDD pmos_rvt w=54.0n l=20n nfin=2
.ENDS


.SUBCKT AO211x2_ASAP7_6t_R A1 A2 B C VDD VSS Y
MM8 Y net014 VSS VSS nmos_rvt w=108.00n l=20n nfin=4
MM4 net014 C VSS VSS nmos_rvt w=54.0n l=20n nfin=2
MM3 net014 B VSS VSS nmos_rvt w=54.0n l=20n nfin=2
MM2 net23 A2 VSS VSS nmos_rvt w=54.0n l=20n nfin=2
MM24 net014 A1 net23 VSS nmos_rvt w=54.0n l=20n nfin=2
MM7 Y net014 VDD VDD pmos_rvt w=108.00n l=20n nfin=4
MM6 net016 C net22 VDD pmos_rvt w=54.0n l=20n nfin=2
MM5 net22 B VDD VDD pmos_rvt w=54.0n l=20n nfin=2
MM1 net014 A2 net016 VDD pmos_rvt w=54.0n l=20n nfin=2
MM25 net014 A1 net016 VDD pmos_rvt w=54.0n l=20n nfin=2
.ENDS


.SUBCKT AO21x1_ASAP7_6t_R A1 A2 B VDD VSS Y
MM3 net043 A1 net046 VSS nmos_rvt w=54.0n l=20n nfin=2
MM7 Y net043 VSS VSS nmos_rvt w=54.0n l=20n nfin=2
MM2 net046 A2 VSS VSS nmos_rvt w=54.0n l=20n nfin=2
MM4 net043 B VSS VSS nmos_rvt w=54.0n l=20n nfin=2
MM0 VDD B net042 VDD pmos_rvt w=54.0n l=20n nfin=2
MM8 Y net043 VDD VDD pmos_rvt w=54.0n l=20n nfin=2
MM1 net042 A1 net043 VDD pmos_rvt w=54.0n l=20n nfin=2
MM5 net042 A2 net043 VDD pmos_rvt w=54.0n l=20n nfin=2
.ENDS


.SUBCKT AO21x2_ASAP7_6t_R A1 A2 B VDD VSS Y
MM7 Y net16 VSS VSS nmos_rvt w=108.00n l=20n nfin=4
MM4 net16 B VSS VSS nmos_rvt w=54.0n l=20n nfin=2
MM3 net16 A1 net29 VSS nmos_rvt w=54.0n l=20n nfin=2
MM2 net29 A2 VSS VSS nmos_rvt w=54.0n l=20n nfin=2
MM8 Y net16 VDD VDD pmos_rvt w=108.00n l=20n nfin=4
MM5 net18 A2 net16 VDD pmos_rvt w=54.0n l=20n nfin=2
MM0 VDD B net18 VDD pmos_rvt w=54.0n l=20n nfin=2
MM1 net18 A1 net16 VDD pmos_rvt w=54.0n l=20n nfin=2
.ENDS


.SUBCKT AO221x1_ASAP7_6t_R A1 A2 B1 B2 C VDD VSS Y
MM4 Y yn VSS VSS nmos_rvt w=54.0n l=20n nfin=2
MM28 yn C VSS VSS nmos_rvt w=54.0n l=20n nfin=2
MM27 net23 B2 VSS VSS nmos_rvt w=54.0n l=20n nfin=2
MM26 yn B1 net23 VSS nmos_rvt w=54.0n l=20n nfin=2
MM2 yn A1 net24 VSS nmos_rvt w=54.0n l=20n nfin=2
MM0 net24 A2 VSS VSS nmos_rvt w=54.0n l=20n nfin=2
MM3 Y yn VDD VDD pmos_rvt w=54.0n l=20n nfin=2
MM1 s1 C s2 VDD pmos_rvt w=54.0n l=20n nfin=2
MM32 s2 B2 yn VDD pmos_rvt w=54.0n l=20n nfin=2
MM31 s1 A2 VDD VDD pmos_rvt w=54.0n l=20n nfin=2
MM30 s2 B1 yn VDD pmos_rvt w=54.0n l=20n nfin=2
MM29 s1 A1 VDD VDD pmos_rvt w=54.0n l=20n nfin=2
.ENDS


.SUBCKT AO221x2_ASAP7_6t_R A1 A2 B1 B2 C VDD VSS Y
MM4 Y yn VSS VSS nmos_rvt w=108.00n l=20n nfin=4
MM28 yn C VSS VSS nmos_rvt w=54.0n l=20n nfin=2
MM27 net23 B2 VSS VSS nmos_rvt w=54.0n l=20n nfin=2
MM26 yn B1 net23 VSS nmos_rvt w=54.0n l=20n nfin=2
MM2 yn A1 net24 VSS nmos_rvt w=54.0n l=20n nfin=2
MM0 net24 A2 VSS VSS nmos_rvt w=54.0n l=20n nfin=2
MM3 Y yn VDD VDD pmos_rvt w=108.00n l=20n nfin=4
MM1 s1 C s2 VDD pmos_rvt w=54.0n l=20n nfin=2
MM32 s2 B2 yn VDD pmos_rvt w=54.0n l=20n nfin=2
MM31 s1 A2 VDD VDD pmos_rvt w=54.0n l=20n nfin=2
MM30 s2 B1 yn VDD pmos_rvt w=54.0n l=20n nfin=2
MM29 s1 A1 VDD VDD pmos_rvt w=54.0n l=20n nfin=2
.ENDS


.SUBCKT AO222x1_ASAP7_6t_R A1 A2 B1 B2 C1 C2 VDD VSS Y
MM9 Y net118 VSS VSS nmos_rvt w=54.0n l=20n nfin=2
MM13 net118 B1 net124 VSS nmos_rvt w=54.0n l=20n nfin=2
MM10 net118 C1 net123 VSS nmos_rvt w=54.0n l=20n nfin=2
MM6 net118 A1 net125 VSS nmos_rvt w=54.0n l=20n nfin=2
MM14 net124 B2 VSS VSS nmos_rvt w=54.0n l=20n nfin=2
MM11 net123 C2 VSS VSS nmos_rvt w=54.0n l=20n nfin=2
MM7 net125 A2 VSS VSS nmos_rvt w=54.0n l=20n nfin=2
MM3 net115 A2 VDD VDD pmos_rvt w=54.0n l=20n nfin=2
MM0 net115 A1 VDD VDD pmos_rvt w=54.0n l=20n nfin=2
MM4 net114 B2 net115 VDD pmos_rvt w=54.0n l=20n nfin=2
MM1 net114 B1 net115 VDD pmos_rvt w=54.0n l=20n nfin=2
MM8 Y net118 VDD VDD pmos_rvt w=54.0n l=20n nfin=2
MM5 net118 C2 net114 VDD pmos_rvt w=54.0n l=20n nfin=2
MM2 net118 C1 net114 VDD pmos_rvt w=54.0n l=20n nfin=2
.ENDS


.SUBCKT AO222x2_ASAP7_6t_R A1 A2 B1 B2 C1 C2 VDD VSS Y
MM8 Y net23 VDD VDD pmos_rvt w=108.00n l=20n nfin=4
MM5 net23 C2 net17 VDD pmos_rvt w=54.0n l=20n nfin=2
MM4 net17 B2 net18 VDD pmos_rvt w=54.0n l=20n nfin=2
MM3 net18 A2 VDD VDD pmos_rvt w=54.0n l=20n nfin=2
MM2 net23 C1 net17 VDD pmos_rvt w=54.0n l=20n nfin=2
MM1 net17 B1 net18 VDD pmos_rvt w=54.0n l=20n nfin=2
MM0 net18 A1 VDD VDD pmos_rvt w=54.0n l=20n nfin=2
MM14 net37 B2 VSS VSS nmos_rvt w=54.0n l=20n nfin=2
MM13 net23 B1 net37 VSS nmos_rvt w=54.0n l=20n nfin=2
MM11 net36 C2 VSS VSS nmos_rvt w=54.0n l=20n nfin=2
MM10 net23 C1 net36 VSS nmos_rvt w=54.0n l=20n nfin=2
MM9 Y net23 VSS VSS nmos_rvt w=108.00n l=20n nfin=4
MM7 net38 A2 VSS VSS nmos_rvt w=54.0n l=20n nfin=2
MM6 net23 A1 net38 VSS nmos_rvt w=54.0n l=20n nfin=2
.ENDS


.SUBCKT AO22x1_ASAP7_6t_R A1 A2 B1 B2 VDD VSS Y
MM5 net18 B2 net13 VDD pmos_rvt w=54.0n l=20n nfin=2
MM4 net18 B1 net13 VDD pmos_rvt w=54.0n l=20n nfin=2
MM3 net13 A2 VDD VDD pmos_rvt w=54.0n l=20n nfin=2
MM1 Y net18 VDD VDD pmos_rvt w=54.0n l=20n nfin=2
MM2 net13 A1 VDD VDD pmos_rvt w=54.0n l=20n nfin=2
MM9 net29 B1 VSS VSS nmos_rvt w=54.0n l=20n nfin=2
MM8 net30 A1 VSS VSS nmos_rvt w=54.0n l=20n nfin=2
MM7 net18 B2 net29 VSS nmos_rvt w=54.0n l=20n nfin=2
MM6 net18 A2 net30 VSS nmos_rvt w=54.0n l=20n nfin=2
MM0 Y net18 VSS VSS nmos_rvt w=54.0n l=20n nfin=2
.ENDS


.SUBCKT AO22x2_ASAP7_6t_R A1 A2 B1 B2 VDD VSS Y
MM5 net18 B2 net13 VDD pmos_rvt w=54.0n l=20n nfin=2
MM4 net18 B1 net13 VDD pmos_rvt w=54.0n l=20n nfin=2
MM3 net13 A2 VDD VDD pmos_rvt w=54.0n l=20n nfin=2
MM1 Y net18 VDD VDD pmos_rvt w=108.00n l=20n nfin=4
MM2 net13 A1 VDD VDD pmos_rvt w=54.0n l=20n nfin=2
MM9 net29 B1 VSS VSS nmos_rvt w=54.0n l=20n nfin=2
MM8 net30 A1 VSS VSS nmos_rvt w=54.0n l=20n nfin=2
MM7 net18 B2 net29 VSS nmos_rvt w=54.0n l=20n nfin=2
MM6 net18 A2 net30 VSS nmos_rvt w=54.0n l=20n nfin=2
MM0 Y net18 VSS VSS nmos_rvt w=108.00n l=20n nfin=4
.ENDS


.SUBCKT AO311x1_ASAP7_6t_R A1 A2 A3 B C VDD VSS Y
MM11 Y net111 VSS VSS nmos_rvt w=54.0n l=20n nfin=2
MM2 net111 A1 net114 VSS nmos_rvt w=54.0n l=20n nfin=2
MM3 net114 A2 net115 VSS nmos_rvt w=54.0n l=20n nfin=2
MM0 net111 C VSS VSS nmos_rvt w=54.0n l=20n nfin=2
MM5 net111 B VSS VSS nmos_rvt w=54.0n l=20n nfin=2
MM4 net115 A3 VSS VSS nmos_rvt w=54.0n l=20n nfin=2
MM8 Y net111 VDD VDD pmos_rvt w=54.0n l=20n nfin=2
MM10 net110 A3 VDD VDD pmos_rvt w=54.0n l=20n nfin=2
MM7 net110 A2 VDD VDD pmos_rvt w=54.0n l=20n nfin=2
MM6 net110 A1 VDD VDD pmos_rvt w=54.0n l=20n nfin=2
MM9 net116 B net110 VDD pmos_rvt w=54.0n l=20n nfin=2
MM1 net111 C net116 VDD pmos_rvt w=54.0n l=20n nfin=2
.ENDS


.SUBCKT AO311x2_ASAP7_6t_R A1 A2 A3 B C VDD VSS Y
MM11 Y net117 VSS VSS nmos_rvt w=108.00n l=20n nfin=4
MM2 net117 A1 net120 VSS nmos_rvt w=54.0n l=20n nfin=2
MM3 net120 A2 net121 VSS nmos_rvt w=54.0n l=20n nfin=2
MM0 net117 C VSS VSS nmos_rvt w=54.0n l=20n nfin=2
MM5 net117 B VSS VSS nmos_rvt w=54.0n l=20n nfin=2
MM4 net121 A3 VSS VSS nmos_rvt w=54.0n l=20n nfin=2
MM8 Y net117 VDD VDD pmos_rvt w=108.00n l=20n nfin=4
MM10 net116 A3 VDD VDD pmos_rvt w=54.0n l=20n nfin=2
MM7 net116 A2 VDD VDD pmos_rvt w=54.0n l=20n nfin=2
MM6 net116 A1 VDD VDD pmos_rvt w=54.0n l=20n nfin=2
MM9 net122 B net116 VDD pmos_rvt w=54.0n l=20n nfin=2
MM1 net117 C net122 VDD pmos_rvt w=54.0n l=20n nfin=2
.ENDS


.SUBCKT AO31x1_ASAP7_6t_R A1 A2 A3 B VDD VSS Y
MM6 net055 A1 VDD VDD pmos_rvt w=54.0n l=20n nfin=2
MM1 Y net056 VDD VDD pmos_rvt w=54.0n l=20n nfin=2
MM10 net055 A3 VDD VDD pmos_rvt w=54.0n l=20n nfin=2
MM9 net056 B net055 VDD pmos_rvt w=54.0n l=20n nfin=2
MM7 net055 A2 VDD VDD pmos_rvt w=54.0n l=20n nfin=2
MM3 net059 A2 net060 VSS nmos_rvt w=54.0n l=20n nfin=2
MM5 net056 B VSS VSS nmos_rvt w=54.0n l=20n nfin=2
MM4 net060 A3 VSS VSS nmos_rvt w=54.0n l=20n nfin=2
MM2 net056 A1 net059 VSS nmos_rvt w=54.0n l=20n nfin=2
MM0 Y net056 VSS VSS nmos_rvt w=54.0n l=20n nfin=2
.ENDS


.SUBCKT AO31x2_ASAP7_6t_R A1 A2 A3 B VDD VSS Y
MM0 Y net18 VSS VSS nmos_rvt w=108.00n l=20n nfin=4
MM5 net18 B VSS VSS nmos_rvt w=54.0n l=20n nfin=2
MM4 net29 A3 VSS VSS nmos_rvt w=54.0n l=20n nfin=2
MM2 net18 A1 net30 VSS nmos_rvt w=54.0n l=20n nfin=2
MM3 net30 A2 net29 VSS nmos_rvt w=54.0n l=20n nfin=2
MM1 Y net18 VDD VDD pmos_rvt w=108.00n l=20n nfin=4
MM9 net18 B net23 VDD pmos_rvt w=54.0n l=20n nfin=2
MM10 net23 A3 VDD VDD pmos_rvt w=54.0n l=20n nfin=2
MM7 net23 A2 VDD VDD pmos_rvt w=54.0n l=20n nfin=2
MM6 net23 A1 VDD VDD pmos_rvt w=54.0n l=20n nfin=2
.ENDS


.SUBCKT AO321x1_ASAP7_6t_R A1 A2 A3 B1 B2 C VDD VSS Y
MM16 Y net127 VSS VSS nmos_rvt w=54.0n l=20n nfin=2
MM11 net127 B2 net132 VSS nmos_rvt w=27.0n l=20n nfin=1
MM2 net127 A1 net133 VSS nmos_rvt w=54.0n l=20n nfin=2
MM3 net133 A2 net134 VSS nmos_rvt w=54.0n l=20n nfin=2
MM0 net127 C VSS VSS nmos_rvt w=27.0n l=20n nfin=1
MM5 net132 B1 VSS VSS nmos_rvt w=27.0n l=20n nfin=1
MM4 net134 A3 VSS VSS nmos_rvt w=54.0n l=20n nfin=2
MM17 Y net127 VDD VDD pmos_rvt w=54.0n l=20n nfin=2
MM10 net126 A3 VDD VDD pmos_rvt w=54.0n l=20n nfin=2
MM7 net126 A2 VDD VDD pmos_rvt w=54.0n l=20n nfin=2
MM6 net126 A1 VDD VDD pmos_rvt w=54.0n l=20n nfin=2
MM12 net125 C net126 VDD pmos_rvt w=54.0n l=20n nfin=2
MM8 net127 B2 net125 VDD pmos_rvt w=54.0n l=20n nfin=2
MM9 net127 B1 net125 VDD pmos_rvt w=54.0n l=20n nfin=2
.ENDS


.SUBCKT AO321x2_ASAP7_6t_R A1 A2 A3 B1 B2 C VDD VSS Y
MM16 Y net131 VSS VSS nmos_rvt w=108.00n l=20n nfin=4
MM11 net131 B2 net136 VSS nmos_rvt w=27.0n l=20n nfin=1
MM2 net131 A1 net137 VSS nmos_rvt w=27.0n l=20n nfin=1
MM3 net137 A2 net138 VSS nmos_rvt w=27.0n l=20n nfin=1
MM0 net131 C VSS VSS nmos_rvt w=27.0n l=20n nfin=1
MM5 net136 B1 VSS VSS nmos_rvt w=27.0n l=20n nfin=1
MM4 net138 A3 VSS VSS nmos_rvt w=27.0n l=20n nfin=1
MM17 Y net131 VDD VDD pmos_rvt w=108.00n l=20n nfin=4
MM10 net130 A3 VDD VDD pmos_rvt w=54.0n l=20n nfin=2
MM7 net130 A2 VDD VDD pmos_rvt w=54.0n l=20n nfin=2
MM6 net130 A1 VDD VDD pmos_rvt w=54.0n l=20n nfin=2
MM12 net129 C net130 VDD pmos_rvt w=54.0n l=20n nfin=2
MM8 net131 B2 net129 VDD pmos_rvt w=54.0n l=20n nfin=2
MM9 net131 B1 net129 VDD pmos_rvt w=54.0n l=20n nfin=2
.ENDS


.SUBCKT AO322x1_ASAP7_6t_R A1 A2 A3 B1 B2 C1 C2 VDD VSS Y
MM16 Y net25 VSS VSS nmos_rvt w=54.0n l=20n nfin=2
MM6 net50 C2 VSS VSS nmos_rvt w=54.0n l=20n nfin=2
MM5 net25 C1 net50 VSS nmos_rvt w=54.0n l=20n nfin=2
MM4 net51 B2 VSS VSS nmos_rvt w=54.0n l=20n nfin=2
MM3 net25 B1 net51 VSS nmos_rvt w=54.0n l=20n nfin=2
MM2 net52 A3 VSS VSS nmos_rvt w=54.0n l=20n nfin=2
MM1 net49 A2 net52 VSS nmos_rvt w=54.0n l=20n nfin=2
MM0 net25 A1 net49 VSS nmos_rvt w=54.0n l=20n nfin=2
MM17 Y net25 VDD VDD pmos_rvt w=54.0n l=20n nfin=2
MM13 net27 A3 VDD VDD pmos_rvt w=54.0n l=20n nfin=2
MM12 net25 C2 net53 VDD pmos_rvt w=54.0n l=20n nfin=2
MM11 net53 B2 net27 VDD pmos_rvt w=54.0n l=20n nfin=2
MM10 net27 A2 VDD VDD pmos_rvt w=54.0n l=20n nfin=2
MM9 net25 C1 net53 VDD pmos_rvt w=54.0n l=20n nfin=2
MM8 net53 B1 net27 VDD pmos_rvt w=54.0n l=20n nfin=2
MM7 net27 A1 VDD VDD pmos_rvt w=54.0n l=20n nfin=2
.ENDS


.SUBCKT AO322x2_ASAP7_6t_R A1 A2 A3 B1 B2 C1 C2 VDD VSS Y
MM16 Y net25 VSS VSS nmos_rvt w=108.00n l=20n nfin=4
MM6 net50 C2 VSS VSS nmos_rvt w=54.0n l=20n nfin=2
MM5 net25 C1 net50 VSS nmos_rvt w=54.0n l=20n nfin=2
MM4 net51 B2 VSS VSS nmos_rvt w=54.0n l=20n nfin=2
MM3 net25 B1 net51 VSS nmos_rvt w=54.0n l=20n nfin=2
MM2 net52 A3 VSS VSS nmos_rvt w=54.0n l=20n nfin=2
MM1 net49 A2 net52 VSS nmos_rvt w=54.0n l=20n nfin=2
MM0 net25 A1 net49 VSS nmos_rvt w=54.0n l=20n nfin=2
MM17 Y net25 VDD VDD pmos_rvt w=108.00n l=20n nfin=4
MM13 net27 A3 VDD VDD pmos_rvt w=54.0n l=20n nfin=2
MM12 net25 C2 net53 VDD pmos_rvt w=54.0n l=20n nfin=2
MM11 net53 B2 net27 VDD pmos_rvt w=54.0n l=20n nfin=2
MM10 net27 A2 VDD VDD pmos_rvt w=54.0n l=20n nfin=2
MM9 net25 C1 net53 VDD pmos_rvt w=54.0n l=20n nfin=2
MM8 net53 B1 net27 VDD pmos_rvt w=54.0n l=20n nfin=2
MM7 net27 A1 VDD VDD pmos_rvt w=54.0n l=20n nfin=2
.ENDS


.SUBCKT AO32x1_ASAP7_6t_R A1 A2 A3 B1 B2 VDD VSS Y
MM21 Y net08 VSS VSS nmos_rvt w=54.0n l=20n nfin=2
MM0 net08 A1 net24 VSS nmos_rvt w=54.0n l=20n nfin=2
MM2 net24 A2 net25 VSS nmos_rvt w=54.0n l=20n nfin=2
MM3 net25 A3 VSS VSS nmos_rvt w=54.0n l=20n nfin=2
MM18 net26 B2 VSS VSS nmos_rvt w=54.0n l=20n nfin=2
MM13 net08 B1 net26 VSS nmos_rvt w=54.0n l=20n nfin=2
MM20 Y net08 VDD VDD pmos_rvt w=54.0n l=20n nfin=2
MM1 net10 A2 VDD VDD pmos_rvt w=54.0n l=20n nfin=2
MM4 net10 A3 VDD VDD pmos_rvt w=54.0n l=20n nfin=2
MM5 net10 A1 VDD VDD pmos_rvt w=54.0n l=20n nfin=2
MM15 net08 B2 net10 VDD pmos_rvt w=54.0n l=20n nfin=2
MM14 net08 B1 net10 VDD pmos_rvt w=54.0n l=20n nfin=2
.ENDS


.SUBCKT AO32x2_ASAP7_6t_R A1 A2 A3 B1 B2 VDD VSS Y
MM21 Y net08 VSS VSS nmos_rvt w=108.00n l=20n nfin=4
MM0 net08 A1 net24 VSS nmos_rvt w=27.0n l=20n nfin=1
MM2 net24 A2 net25 VSS nmos_rvt w=27.0n l=20n nfin=1
MM3 net25 A3 VSS VSS nmos_rvt w=27.0n l=20n nfin=1
MM18 net26 B2 VSS VSS nmos_rvt w=27.0n l=20n nfin=1
MM13 net08 B1 net26 VSS nmos_rvt w=27.0n l=20n nfin=1
MM20 Y net08 VDD VDD pmos_rvt w=108.00n l=20n nfin=4
MM1 net10 A2 VDD VDD pmos_rvt w=54.0n l=20n nfin=2
MM4 net10 A3 VDD VDD pmos_rvt w=54.0n l=20n nfin=2
MM5 net10 A1 VDD VDD pmos_rvt w=54.0n l=20n nfin=2
MM15 net08 B2 net10 VDD pmos_rvt w=54.0n l=20n nfin=2
MM14 net08 B1 net10 VDD pmos_rvt w=54.0n l=20n nfin=2
.ENDS


.SUBCKT AO331x1_ASAP7_6t_R A1 A2 A3 B1 B2 B3 C VDD VSS Y
MM0 Y yb VDD VDD pmos_rvt w=54.0n l=20n nfin=2
MM23 net24 B3 net034 VDD pmos_rvt w=54.0n l=20n nfin=2
MM26 net034 A3 VDD VDD pmos_rvt w=54.0n l=20n nfin=2
MM21 net24 B2 net034 VDD pmos_rvt w=54.0n l=20n nfin=2
MM25 net034 A2 VDD VDD pmos_rvt w=54.0n l=20n nfin=2
MM27 yb C net24 VDD pmos_rvt w=54.0n l=20n nfin=2
MM20 net24 B1 net034 VDD pmos_rvt w=54.0n l=20n nfin=2
MM24 net034 A1 VDD VDD pmos_rvt w=54.0n l=20n nfin=2
MM1 Y yb VSS VSS nmos_rvt w=54.0n l=20n nfin=2
MM22 yb C VSS VSS nmos_rvt w=27.0n l=20n nfin=1
MM19 net31 B3 VSS VSS nmos_rvt w=27.0n l=20n nfin=1
MM18 net32 B2 net31 VSS nmos_rvt w=27.0n l=20n nfin=1
MM17 yb B1 net32 VSS nmos_rvt w=27.0n l=20n nfin=1
MM16 n2 A3 VSS VSS nmos_rvt w=27.0n l=20n nfin=1
MM15 n1 A2 n2 VSS nmos_rvt w=27.0n l=20n nfin=1
MM14 yb A1 n1 VSS nmos_rvt w=27.0n l=20n nfin=1
.ENDS


.SUBCKT AO331x2_ASAP7_6t_R A1 A2 A3 B1 B2 B3 C VDD VSS Y
MM0 Y yb VDD VDD pmos_rvt w=108.00n l=20n nfin=4
MM23 net24 B3 net034 VDD pmos_rvt w=54.0n l=20n nfin=2
MM26 net034 A3 VDD VDD pmos_rvt w=54.0n l=20n nfin=2
MM21 net24 B2 net034 VDD pmos_rvt w=54.0n l=20n nfin=2
MM25 net034 A2 VDD VDD pmos_rvt w=54.0n l=20n nfin=2
MM27 yb C net24 VDD pmos_rvt w=54.0n l=20n nfin=2
MM20 net24 B1 net034 VDD pmos_rvt w=54.0n l=20n nfin=2
MM24 net034 A1 VDD VDD pmos_rvt w=54.0n l=20n nfin=2
MM1 Y yb VSS VSS nmos_rvt w=108.00n l=20n nfin=4
MM22 yb C VSS VSS nmos_rvt w=27.0n l=20n nfin=1
MM19 net31 B3 VSS VSS nmos_rvt w=27.0n l=20n nfin=1
MM18 net32 B2 net31 VSS nmos_rvt w=27.0n l=20n nfin=1
MM17 yb B1 net32 VSS nmos_rvt w=27.0n l=20n nfin=1
MM16 n2 A3 VSS VSS nmos_rvt w=27.0n l=20n nfin=1
MM15 n1 A2 n2 VSS nmos_rvt w=27.0n l=20n nfin=1
MM14 yb A1 n1 VSS nmos_rvt w=27.0n l=20n nfin=1
.ENDS


.SUBCKT AO332x1_ASAP7_6t_R A1 A2 A3 B1 B2 B3 C1 C2 VDD VSS Y
MM20 net053 B2 net57 VSS nmos_rvt w=54.0n l=20n nfin=2
MM0 net035 A1 net55 VSS nmos_rvt w=54.0n l=20n nfin=2
MM23 Y net035 VSS VSS nmos_rvt w=54.0n l=20n nfin=2
MM1 net55 A2 net54 VSS nmos_rvt w=54.0n l=20n nfin=2
MM2 net54 A3 VSS VSS nmos_rvt w=54.0n l=20n nfin=2
MM18 net59 C2 VSS VSS nmos_rvt w=54.0n l=20n nfin=2
MM14 net035 C1 net59 VSS nmos_rvt w=54.0n l=20n nfin=2
MM10 net035 B1 net56 VSS nmos_rvt w=54.0n l=20n nfin=2
MM9 net56 B2 net053 VSS nmos_rvt w=54.0n l=20n nfin=2
MM8 net57 B3 VSS VSS nmos_rvt w=54.0n l=20n nfin=2
MM7 net035 C1 s1 VDD pmos_rvt w=54.0n l=20n nfin=2
MM6 net035 C2 s1 VDD pmos_rvt w=54.0n l=20n nfin=2
MM22 s1 B2 s1 VDD pmos_rvt w=54.0n l=20n nfin=2
MM24 Y net035 VDD VDD pmos_rvt w=54.0n l=20n nfin=2
MM17 s2 A3 VDD VDD pmos_rvt w=54.0n l=20n nfin=2
MM16 s2 A2 VDD VDD pmos_rvt w=54.0n l=20n nfin=2
MM15 s2 A1 VDD VDD pmos_rvt w=54.0n l=20n nfin=2
MM13 s1 B3 s2 VDD pmos_rvt w=54.0n l=20n nfin=2
MM12 s1 B2 s2 VDD pmos_rvt w=54.0n l=20n nfin=2
MM11 s1 B1 s2 VDD pmos_rvt w=54.0n l=20n nfin=2
.ENDS


.SUBCKT AO332x2_ASAP7_6t_R A1 A2 A3 B1 B2 B3 C1 C2 VDD VSS Y
MM20 net053 B2 net57 VSS nmos_rvt w=54.0n l=20n nfin=2
MM0 net035 A1 net55 VSS nmos_rvt w=54.0n l=20n nfin=2
MM23 Y net035 VSS VSS nmos_rvt w=108.00n l=20n nfin=4
MM1 net55 A2 net54 VSS nmos_rvt w=54.0n l=20n nfin=2
MM2 net54 A3 VSS VSS nmos_rvt w=54.0n l=20n nfin=2
MM18 net59 C2 VSS VSS nmos_rvt w=54.0n l=20n nfin=2
MM14 net035 C1 net59 VSS nmos_rvt w=54.0n l=20n nfin=2
MM10 net035 B1 net56 VSS nmos_rvt w=54.0n l=20n nfin=2
MM9 net56 B2 net053 VSS nmos_rvt w=54.0n l=20n nfin=2
MM8 net57 B3 VSS VSS nmos_rvt w=54.0n l=20n nfin=2
MM7 net035 C1 s1 VDD pmos_rvt w=54.0n l=20n nfin=2
MM6 net035 C2 s1 VDD pmos_rvt w=54.0n l=20n nfin=2
MM22 s1 B2 s1 VDD pmos_rvt w=54.0n l=20n nfin=2
MM24 Y net035 VDD VDD pmos_rvt w=108.00n l=20n nfin=4
MM17 s2 A3 VDD VDD pmos_rvt w=54.0n l=20n nfin=2
MM16 s2 A2 VDD VDD pmos_rvt w=54.0n l=20n nfin=2
MM15 s2 A1 VDD VDD pmos_rvt w=54.0n l=20n nfin=2
MM13 s1 B3 s2 VDD pmos_rvt w=54.0n l=20n nfin=2
MM12 s1 B2 s2 VDD pmos_rvt w=54.0n l=20n nfin=2
MM11 s1 B1 s2 VDD pmos_rvt w=54.0n l=20n nfin=2
.ENDS


.SUBCKT AO333x1_ASAP7_6t_R A1 A2 A3 B1 B2 B3 C1 C2 C3 VDD VSS Y
MM3 Y net40 VSS VSS nmos_rvt w=54.0n l=20n nfin=2
MM0 net40 C1 net55 VSS nmos_rvt w=54.0n l=20n nfin=2
MM1 net55 C2 net54 VSS nmos_rvt w=54.0n l=20n nfin=2
MM2 net54 C3 VSS VSS nmos_rvt w=54.0n l=20n nfin=2
MM19 net58 A3 VSS VSS nmos_rvt w=54.0n l=20n nfin=2
MM18 net59 A2 net58 VSS nmos_rvt w=54.0n l=20n nfin=2
MM14 net40 A1 net59 VSS nmos_rvt w=54.0n l=20n nfin=2
MM10 net40 B3 net56 VSS nmos_rvt w=54.0n l=20n nfin=2
MM9 net56 B2 net57 VSS nmos_rvt w=54.0n l=20n nfin=2
MM8 net57 B1 VSS VSS nmos_rvt w=54.0n l=20n nfin=2
MM7 net40 A1 net22 VDD pmos_rvt w=54.0n l=20n nfin=2
MM6 net40 A2 net22 VDD pmos_rvt w=54.0n l=20n nfin=2
MM5 net40 A3 net22 VDD pmos_rvt w=54.0n l=20n nfin=2
MM4 Y net40 VDD VDD pmos_rvt w=54.0n l=20n nfin=2
MM17 net24 C3 VDD VDD pmos_rvt w=54.0n l=20n nfin=2
MM16 net24 C2 VDD VDD pmos_rvt w=54.0n l=20n nfin=2
MM15 net24 C1 VDD VDD pmos_rvt w=54.0n l=20n nfin=2
MM13 net22 B3 net24 VDD pmos_rvt w=54.0n l=20n nfin=2
MM12 net22 B2 net24 VDD pmos_rvt w=54.0n l=20n nfin=2
MM11 net22 B1 net24 VDD pmos_rvt w=54.0n l=20n nfin=2
.ENDS


.SUBCKT AO333x2_ASAP7_6t_R A1 A2 A3 B1 B2 B3 C1 C2 C3 VDD VSS Y
MM3 Y net40 VSS VSS nmos_rvt w=108.00n l=20n nfin=4
MM0 net40 C1 net55 VSS nmos_rvt w=54.0n l=20n nfin=2
MM1 net55 C2 net54 VSS nmos_rvt w=54.0n l=20n nfin=2
MM2 net54 C3 VSS VSS nmos_rvt w=54.0n l=20n nfin=2
MM19 net58 A3 VSS VSS nmos_rvt w=54.0n l=20n nfin=2
MM18 net59 A2 net58 VSS nmos_rvt w=54.0n l=20n nfin=2
MM14 net40 A1 net59 VSS nmos_rvt w=54.0n l=20n nfin=2
MM10 net40 B3 net56 VSS nmos_rvt w=54.0n l=20n nfin=2
MM9 net56 B2 net57 VSS nmos_rvt w=54.0n l=20n nfin=2
MM8 net57 B1 VSS VSS nmos_rvt w=54.0n l=20n nfin=2
MM7 net40 A1 net22 VDD pmos_rvt w=54.0n l=20n nfin=2
MM6 net40 A2 net22 VDD pmos_rvt w=54.0n l=20n nfin=2
MM5 net40 A3 net22 VDD pmos_rvt w=54.0n l=20n nfin=2
MM4 Y net40 VDD VDD pmos_rvt w=108.00n l=20n nfin=4
MM17 net24 C3 VDD VDD pmos_rvt w=54.0n l=20n nfin=2
MM16 net24 C2 VDD VDD pmos_rvt w=54.0n l=20n nfin=2
MM15 net24 C1 VDD VDD pmos_rvt w=54.0n l=20n nfin=2
MM13 net22 B3 net24 VDD pmos_rvt w=54.0n l=20n nfin=2
MM12 net22 B2 net24 VDD pmos_rvt w=54.0n l=20n nfin=2
MM11 net22 B1 net24 VDD pmos_rvt w=54.0n l=20n nfin=2
.ENDS


.SUBCKT AO33x1_ASAP7_6t_R A1 A2 A3 B1 B2 B3 VDD VSS Y
MM24 Y net122 VSS VSS nmos_rvt w=54.0n l=20n nfin=2
MM10 net122 B1 net124 VSS nmos_rvt w=27.0n l=20n nfin=1
MM7 net122 A1 net126 VSS nmos_rvt w=27.0n l=20n nfin=1
MM8 net124 B2 net123 VSS nmos_rvt w=27.0n l=20n nfin=1
MM0 net126 A2 net125 VSS nmos_rvt w=27.0n l=20n nfin=1
MM9 net123 B3 VSS VSS nmos_rvt w=27.0n l=20n nfin=1
MM1 net125 A3 VSS VSS nmos_rvt w=27.0n l=20n nfin=1
MM5 net114 A3 VDD VDD pmos_rvt w=54.0n l=20n nfin=2
MM4 net114 A2 VDD VDD pmos_rvt w=54.0n l=20n nfin=2
MM21 net114 A1 VDD VDD pmos_rvt w=54.0n l=20n nfin=2
MM6 net122 B3 net114 VDD pmos_rvt w=54.0n l=20n nfin=2
MM3 net122 B2 net114 VDD pmos_rvt w=54.0n l=20n nfin=2
MM2 net122 B1 net114 VDD pmos_rvt w=54.0n l=20n nfin=2
MM25 Y net122 VDD VDD pmos_rvt w=54.0n l=20n nfin=2
.ENDS


.SUBCKT AO33x2_ASAP7_6t_R A1 A2 A3 B1 B2 B3 VDD VSS Y
MM25 Y net020 VDD VDD pmos_rvt w=108.00n l=20n nfin=4
MM6 net020 B3 net15 VDD pmos_rvt w=54.0n l=20n nfin=2
MM5 net15 A3 VDD VDD pmos_rvt w=54.0n l=20n nfin=2
MM4 net15 A2 VDD VDD pmos_rvt w=54.0n l=20n nfin=2
MM3 net020 B2 net15 VDD pmos_rvt w=54.0n l=20n nfin=2
MM2 net020 B1 net15 VDD pmos_rvt w=54.0n l=20n nfin=2
MM21 net15 A1 VDD VDD pmos_rvt w=54.0n l=20n nfin=2
MM24 Y net020 VSS VSS nmos_rvt w=108.00n l=20n nfin=4
MM10 net020 B1 net39 VSS nmos_rvt w=27.0n l=20n nfin=1
MM9 net022 B3 VSS VSS nmos_rvt w=27.0n l=20n nfin=1
MM8 net39 B2 net022 VSS nmos_rvt w=27.0n l=20n nfin=1
MM7 net020 A1 net40 VSS nmos_rvt w=27.0n l=20n nfin=1
MM1 net024 A3 VSS VSS nmos_rvt w=27.0n l=20n nfin=1
MM0 net40 A2 net024 VSS nmos_rvt w=27.0n l=20n nfin=1
.ENDS


.SUBCKT AOI211xp25_ASAP7_6t_R A1 A2 B C VDD VSS Y
MM20 Y C VSS VSS nmos_rvt w=27.0n l=20n nfin=1
MM3 Y B VSS VSS nmos_rvt w=27.0n l=20n nfin=1
MM4 Y A2 net32 VSS nmos_rvt w=27.0n l=20n nfin=1
MM5 net32 A1 VSS VSS nmos_rvt w=27.0n l=20n nfin=1
MM21 net17 A2 VDD VDD pmos_rvt w=54.0n l=20n nfin=2
MM0 net17 A1 VDD VDD pmos_rvt w=54.0n l=20n nfin=2
MM6 net34 B net17 VDD pmos_rvt w=54.0n l=20n nfin=2
MM7 Y C net34 VDD pmos_rvt w=54.0n l=20n nfin=2
.ENDS


.SUBCKT AOI211xp5_ASAP7_6t_R A1 A2 B C VDD VSS Y
MM5 net047 A1 VSS VSS nmos_rvt w=54.0n l=20n nfin=2
MM4 Y A2 net047 VSS nmos_rvt w=54.0n l=20n nfin=2
MM3 Y B VSS VSS nmos_rvt w=54.0n l=20n nfin=2
MM20 Y C VSS VSS nmos_rvt w=54.0n l=20n nfin=2
MM21 net042 A2 VDD VDD pmos_rvt w=108.00n l=20n nfin=4
MM0 net042 A1 VDD VDD pmos_rvt w=108.00n l=20n nfin=4
MM6 net046 B net042 VDD pmos_rvt w=108.00n l=20n nfin=4
MM7 Y C net046 VDD pmos_rvt w=108.00n l=20n nfin=4
.ENDS


.SUBCKT AOI21x1_ASAP7_6t_R A1 A2 B VDD VSS Y
MM4 Y B VSS VSS nmos_rvt w=108.00n l=20n nfin=4
MM3 Y A1 net29 VSS nmos_rvt w=108.00n l=20n nfin=4
MM2 net29 A2 VSS VSS nmos_rvt w=108.00n l=20n nfin=4
MM5 net18 A2 VDD VDD pmos_rvt w=108.00n l=20n nfin=4
MM0 Y B net18 VDD pmos_rvt w=108.00n l=20n nfin=4
MM1 net18 A1 VDD VDD pmos_rvt w=108.00n l=20n nfin=4
.ENDS


.SUBCKT AOI21xp25_ASAP7_6t_R A1 A2 B VDD VSS Y
MM4 Y B VSS VSS nmos_rvt w=27.0n l=20n nfin=1
MM3 Y A1 net29 VSS nmos_rvt w=27.0n l=20n nfin=1
MM2 net29 A2 VSS VSS nmos_rvt w=27.0n l=20n nfin=1
MM5 net18 A2 VDD VDD pmos_rvt w=27.0n l=20n nfin=1
MM0 Y B net18 VDD pmos_rvt w=27.0n l=20n nfin=1
MM1 net18 A1 VDD VDD pmos_rvt w=27.0n l=20n nfin=1
.ENDS


.SUBCKT AOI21xp5_ASAP7_6t_R A1 A2 B VDD VSS Y
MM4 Y B VSS VSS nmos_rvt w=54.0n l=20n nfin=2
MM3 Y A1 net29 VSS nmos_rvt w=54.0n l=20n nfin=2
MM2 net29 A2 VSS VSS nmos_rvt w=54.0n l=20n nfin=2
MM5 net18 A2 VDD VDD pmos_rvt w=54.0n l=20n nfin=2
MM0 Y B net18 VDD pmos_rvt w=54.0n l=20n nfin=2
MM1 net18 A1 VDD VDD pmos_rvt w=54.0n l=20n nfin=2
.ENDS


.SUBCKT AOI221xp25_ASAP7_6t_R A1 A2 B1 B2 C VDD VSS Y
MM28 Y C VSS VSS nmos_rvt w=27.0n l=20n nfin=1
MM27 net23 B2 VSS VSS nmos_rvt w=27.0n l=20n nfin=1
MM26 Y B1 net23 VSS nmos_rvt w=27.0n l=20n nfin=1
MM2 Y A1 net24 VSS nmos_rvt w=27.0n l=20n nfin=1
MM0 net24 A2 VSS VSS nmos_rvt w=27.0n l=20n nfin=1